<?xml version="1.0" encoding="UTF-8"?>

<!-- generated on Sun 24 Mar 2019 04:33:53 PM UTC by Eclipse SUMO netedit Version 1.0.1
<configuration xmlns:xsi="http://www.w3.org/2001/XMLSchema-instance" xsi:noNamespaceSchemaLocation="http://sumo.dlr.de/xsd/netconvertConfiguration.xsd">

    <input>
        <sumo-net-file value="grid_demo.net.xml"/>
    </input>

    <output>
        <output-file value="grid_demo.net.xml"/>
    </output>

    <processing>
        <offset.disable-normalization value="true"/>
        <lefthand value="false"/>
    </processing>

    <junctions>
        <no-turnarounds value="true"/>
        <junctions.corner-detail value="5"/>
        <junctions.limit-turn-speed value="5.5"/>
        <rectangular-lane-cut value="false"/>
    </junctions>

    <pedestrian>
        <walkingareas value="false"/>
    </pedestrian>

</configuration>
-->

<net version="1.0" junctionCornerDetail="5" limitTurnSpeed="5.50" xmlns:xsi="http://www.w3.org/2001/XMLSchema-instance" xsi:noNamespaceSchemaLocation="http://sumo.dlr.de/xsd/net_file.xsd">

    <location netOffset="0.00,0.00" convBoundary="0.00,0.00,250.00,250.00" origBoundary="0.00,0.00,250.00,250.00" projParameter="!"/>

    <edge id=":A0_0" function="internal">
        <lane id=":A0_0_0" index="0" speed="6.62" length="9.27" width="3.50" shape="19.75,36.00 19.39,33.48 18.31,31.69 16.52,30.61 14.00,30.25"/>
    </edge>
    <edge id=":A0_1" function="internal">
        <lane id=":A0_1_0" index="0" speed="40.00" length="22.00" width="3.50" shape="19.75,36.00 19.75,14.00"/>
        <lane id=":A0_1_1" index="1" speed="40.00" length="22.00" width="3.50" shape="23.25,36.00 23.25,14.00"/>
    </edge>
    <edge id=":A0_3" function="internal">
        <lane id=":A0_3_0" index="0" speed="9.55" length="7.49" width="3.50" shape="23.25,36.00 24.05,30.42 25.00,28.83"/>
    </edge>
    <edge id=":A0_14" function="internal">
        <lane id=":A0_14_0" index="0" speed="9.55" length="13.08" width="3.50" shape="25.00,28.83 26.44,26.44 30.42,24.05 36.00,23.25"/>
    </edge>
    <edge id=":A0_4" function="internal">
        <lane id=":A0_4_0" index="0" speed="6.62" length="9.27" width="3.50" shape="36.00,30.25 33.48,30.61 31.69,31.69 30.61,33.48 30.25,36.00"/>
    </edge>
    <edge id=":A0_5" function="internal">
        <lane id=":A0_5_0" index="0" speed="40.00" length="22.00" width="3.50" shape="36.00,30.25 14.00,30.25"/>
        <lane id=":A0_5_1" index="1" speed="40.00" length="22.00" width="3.50" shape="36.00,26.75 14.00,26.75"/>
    </edge>
    <edge id=":A0_7" function="internal">
        <lane id=":A0_7_0" index="0" speed="9.55" length="20.56" width="3.50" shape="36.00,26.75 30.42,25.95 26.44,23.56 24.05,19.58 23.25,14.00"/>
    </edge>
    <edge id=":A0_8" function="internal">
        <lane id=":A0_8_0" index="0" speed="6.62" length="9.27" width="3.50" shape="30.25,14.00 30.61,16.52 31.69,18.31 33.48,19.39 36.00,19.75"/>
    </edge>
    <edge id=":A0_9" function="internal">
        <lane id=":A0_9_0" index="0" speed="40.00" length="22.00" width="3.50" shape="30.25,14.00 30.25,36.00"/>
        <lane id=":A0_9_1" index="1" speed="40.00" length="22.00" width="3.50" shape="26.75,14.00 26.75,36.00"/>
    </edge>
    <edge id=":A0_11" function="internal">
        <lane id=":A0_11_0" index="0" speed="40.00" length="22.00" width="3.50" shape="14.00,19.75 36.00,19.75"/>
        <lane id=":A0_11_1" index="1" speed="40.00" length="22.00" width="3.50" shape="14.00,23.25 36.00,23.25"/>
    </edge>
    <edge id=":A0_13" function="internal">
        <lane id=":A0_13_0" index="0" speed="9.55" length="20.56" width="3.50" shape="14.00,23.25 19.58,24.05 23.56,26.44 25.95,30.42 26.75,36.00"/>
    </edge>
    <edge id=":A1_0" function="internal">
        <lane id=":A1_0_0" index="0" speed="6.62" length="9.27" width="3.50" shape="19.75,136.00 19.39,133.48 18.31,131.69 16.52,130.61 14.00,130.25"/>
    </edge>
    <edge id=":A1_1" function="internal">
        <lane id=":A1_1_0" index="0" speed="40.00" length="22.00" width="3.50" shape="19.75,136.00 19.75,114.00"/>
        <lane id=":A1_1_1" index="1" speed="40.00" length="22.00" width="3.50" shape="23.25,136.00 23.25,114.00"/>
    </edge>
    <edge id=":A1_3" function="internal">
        <lane id=":A1_3_0" index="0" speed="9.55" length="7.49" width="3.50" shape="23.25,136.00 24.05,130.42 25.00,128.83"/>
    </edge>
    <edge id=":A1_16" function="internal">
        <lane id=":A1_16_0" index="0" speed="9.55" length="13.08" width="3.50" shape="25.00,128.83 26.44,126.44 30.42,124.05 36.00,123.25"/>
    </edge>
    <edge id=":A1_4" function="internal">
        <lane id=":A1_4_0" index="0" speed="6.62" length="9.27" width="3.50" shape="36.00,130.25 33.48,130.61 31.69,131.69 30.61,133.48 30.25,136.00"/>
    </edge>
    <edge id=":A1_5" function="internal">
        <lane id=":A1_5_0" index="0" speed="40.00" length="22.00" width="3.50" shape="36.00,130.25 14.00,130.25"/>
        <lane id=":A1_5_1" index="1" speed="40.00" length="22.00" width="3.50" shape="36.00,126.75 14.00,126.75"/>
    </edge>
    <edge id=":A1_7" function="internal">
        <lane id=":A1_7_0" index="0" speed="9.55" length="20.56" width="3.50" shape="36.00,126.75 30.42,125.95 26.44,123.56 24.05,119.58 23.25,114.00"/>
    </edge>
    <edge id=":A1_8" function="internal">
        <lane id=":A1_8_0" index="0" speed="6.62" length="9.27" width="3.50" shape="30.25,114.00 30.61,116.52 31.69,118.31 33.48,119.39 36.00,119.75"/>
    </edge>
    <edge id=":A1_9" function="internal">
        <lane id=":A1_9_0" index="0" speed="40.00" length="22.00" width="3.50" shape="30.25,114.00 30.25,136.00"/>
        <lane id=":A1_9_1" index="1" speed="40.00" length="22.00" width="3.50" shape="26.75,114.00 26.75,136.00"/>
    </edge>
    <edge id=":A1_11" function="internal">
        <lane id=":A1_11_0" index="0" speed="9.55" length="7.49" width="3.50" shape="26.75,114.00 25.95,119.58 25.00,121.17"/>
    </edge>
    <edge id=":A1_17" function="internal">
        <lane id=":A1_17_0" index="0" speed="9.55" length="13.08" width="3.50" shape="25.00,121.17 23.56,123.56 19.58,125.95 14.00,126.75"/>
    </edge>
    <edge id=":A1_12" function="internal">
        <lane id=":A1_12_0" index="0" speed="6.62" length="9.27" width="3.50" shape="14.00,119.75 16.52,119.39 18.31,118.31 19.39,116.52 19.75,114.00"/>
    </edge>
    <edge id=":A1_13" function="internal">
        <lane id=":A1_13_0" index="0" speed="40.00" length="22.00" width="3.50" shape="14.00,119.75 36.00,119.75"/>
        <lane id=":A1_13_1" index="1" speed="40.00" length="22.00" width="3.50" shape="14.00,123.25 36.00,123.25"/>
    </edge>
    <edge id=":A1_15" function="internal">
        <lane id=":A1_15_0" index="0" speed="9.55" length="20.56" width="3.50" shape="14.00,123.25 19.58,124.05 23.56,126.44 25.95,130.42 26.75,136.00"/>
    </edge>
    <edge id=":A2_0" function="internal">
        <lane id=":A2_0_0" index="0" speed="40.00" length="22.00" width="3.50" shape="19.75,236.00 19.75,214.00"/>
        <lane id=":A2_0_1" index="1" speed="40.00" length="22.00" width="3.50" shape="23.25,236.00 23.25,214.00"/>
    </edge>
    <edge id=":A2_2" function="internal">
        <lane id=":A2_2_0" index="0" speed="9.55" length="7.49" width="3.50" shape="23.25,236.00 24.05,230.42 25.00,228.83"/>
    </edge>
    <edge id=":A2_14" function="internal">
        <lane id=":A2_14_0" index="0" speed="9.55" length="13.08" width="3.50" shape="25.00,228.83 26.44,226.44 30.42,224.05 36.00,223.25"/>
    </edge>
    <edge id=":A2_3" function="internal">
        <lane id=":A2_3_0" index="0" speed="6.62" length="9.27" width="3.50" shape="36.00,230.25 33.48,230.61 31.69,231.69 30.61,233.48 30.25,236.00"/>
    </edge>
    <edge id=":A2_4" function="internal">
        <lane id=":A2_4_0" index="0" speed="40.00" length="22.00" width="3.50" shape="36.00,230.25 14.00,230.25"/>
        <lane id=":A2_4_1" index="1" speed="40.00" length="22.00" width="3.50" shape="36.00,226.75 14.00,226.75"/>
    </edge>
    <edge id=":A2_6" function="internal">
        <lane id=":A2_6_0" index="0" speed="9.55" length="20.56" width="3.50" shape="36.00,226.75 30.42,225.95 26.44,223.56 24.05,219.58 23.25,214.00"/>
    </edge>
    <edge id=":A2_7" function="internal">
        <lane id=":A2_7_0" index="0" speed="6.62" length="9.27" width="3.50" shape="30.25,214.00 30.61,216.52 31.69,218.31 33.48,219.39 36.00,219.75"/>
    </edge>
    <edge id=":A2_8" function="internal">
        <lane id=":A2_8_0" index="0" speed="40.00" length="22.00" width="3.50" shape="30.25,214.00 30.25,236.00"/>
        <lane id=":A2_8_1" index="1" speed="40.00" length="22.00" width="3.50" shape="26.75,214.00 26.75,236.00"/>
    </edge>
    <edge id=":A2_10" function="internal">
        <lane id=":A2_10_0" index="0" speed="9.55" length="7.49" width="3.50" shape="26.75,214.00 25.95,219.58 25.00,221.17"/>
    </edge>
    <edge id=":A2_15" function="internal">
        <lane id=":A2_15_0" index="0" speed="9.55" length="13.08" width="3.50" shape="25.00,221.17 23.56,223.56 19.58,225.95 14.00,226.75"/>
    </edge>
    <edge id=":A2_11" function="internal">
        <lane id=":A2_11_0" index="0" speed="6.62" length="9.27" width="3.50" shape="14.00,219.75 16.52,219.39 18.31,218.31 19.39,216.52 19.75,214.00"/>
    </edge>
    <edge id=":A2_12" function="internal">
        <lane id=":A2_12_0" index="0" speed="40.00" length="22.00" width="3.50" shape="14.00,219.75 36.00,219.75"/>
        <lane id=":A2_12_1" index="1" speed="40.00" length="22.00" width="3.50" shape="14.00,223.25 36.00,223.25"/>
    </edge>
    <edge id=":B0_0" function="internal">
        <lane id=":B0_0_0" index="0" speed="6.62" length="9.27" width="3.50" shape="119.75,36.00 119.39,33.48 118.31,31.69 116.52,30.61 114.00,30.25"/>
    </edge>
    <edge id=":B0_1" function="internal">
        <lane id=":B0_1_0" index="0" speed="40.00" length="22.00" width="3.50" shape="119.75,36.00 119.75,14.00"/>
        <lane id=":B0_1_1" index="1" speed="40.00" length="22.00" width="3.50" shape="123.25,36.00 123.25,14.00"/>
    </edge>
    <edge id=":B0_3" function="internal">
        <lane id=":B0_3_0" index="0" speed="9.55" length="7.49" width="3.50" shape="123.25,36.00 124.05,30.42 125.00,28.83"/>
    </edge>
    <edge id=":B0_16" function="internal">
        <lane id=":B0_16_0" index="0" speed="9.55" length="13.08" width="3.50" shape="125.00,28.83 126.44,26.44 130.42,24.05 136.00,23.25"/>
    </edge>
    <edge id=":B0_4" function="internal">
        <lane id=":B0_4_0" index="0" speed="6.62" length="9.27" width="3.50" shape="136.00,30.25 133.48,30.61 131.69,31.69 130.61,33.48 130.25,36.00"/>
    </edge>
    <edge id=":B0_5" function="internal">
        <lane id=":B0_5_0" index="0" speed="40.00" length="22.00" width="3.50" shape="136.00,30.25 114.00,30.25"/>
        <lane id=":B0_5_1" index="1" speed="40.00" length="22.00" width="3.50" shape="136.00,26.75 114.00,26.75"/>
    </edge>
    <edge id=":B0_7" function="internal">
        <lane id=":B0_7_0" index="0" speed="9.55" length="20.56" width="3.50" shape="136.00,26.75 130.42,25.95 126.44,23.56 124.05,19.58 123.25,14.00"/>
    </edge>
    <edge id=":B0_8" function="internal">
        <lane id=":B0_8_0" index="0" speed="6.62" length="9.27" width="3.50" shape="130.25,14.00 130.61,16.52 131.69,18.31 133.48,19.39 136.00,19.75"/>
    </edge>
    <edge id=":B0_9" function="internal">
        <lane id=":B0_9_0" index="0" speed="40.00" length="22.00" width="3.50" shape="130.25,14.00 130.25,36.00"/>
        <lane id=":B0_9_1" index="1" speed="40.00" length="22.00" width="3.50" shape="126.75,14.00 126.75,36.00"/>
    </edge>
    <edge id=":B0_11" function="internal">
        <lane id=":B0_11_0" index="0" speed="9.55" length="7.49" width="3.50" shape="126.75,14.00 125.95,19.58 125.00,21.17"/>
    </edge>
    <edge id=":B0_17" function="internal">
        <lane id=":B0_17_0" index="0" speed="9.55" length="13.08" width="3.50" shape="125.00,21.17 123.56,23.56 119.58,25.95 114.00,26.75"/>
    </edge>
    <edge id=":B0_12" function="internal">
        <lane id=":B0_12_0" index="0" speed="6.62" length="9.27" width="3.50" shape="114.00,19.75 116.52,19.39 118.31,18.31 119.39,16.52 119.75,14.00"/>
    </edge>
    <edge id=":B0_13" function="internal">
        <lane id=":B0_13_0" index="0" speed="40.00" length="22.00" width="3.50" shape="114.00,19.75 136.00,19.75"/>
        <lane id=":B0_13_1" index="1" speed="40.00" length="22.00" width="3.50" shape="114.00,23.25 136.00,23.25"/>
    </edge>
    <edge id=":B0_15" function="internal">
        <lane id=":B0_15_0" index="0" speed="9.55" length="20.56" width="3.50" shape="114.00,23.25 119.58,24.05 123.56,26.44 125.95,30.42 126.75,36.00"/>
    </edge>
    <edge id=":B1_0" function="internal">
        <lane id=":B1_0_0" index="0" speed="6.62" length="9.27" width="3.50" shape="119.75,136.00 119.39,133.48 118.31,131.69 116.52,130.61 114.00,130.25"/>
    </edge>
    <edge id=":B1_1" function="internal">
        <lane id=":B1_1_0" index="0" speed="40.00" length="22.00" width="3.50" shape="119.75,136.00 119.75,114.00"/>
        <lane id=":B1_1_1" index="1" speed="40.00" length="22.00" width="3.50" shape="123.25,136.00 123.25,114.00"/>
    </edge>
    <edge id=":B1_3" function="internal">
        <lane id=":B1_3_0" index="0" speed="9.55" length="7.49" width="3.50" shape="123.25,136.00 124.05,130.42 125.00,128.83"/>
    </edge>
    <edge id=":B1_16" function="internal">
        <lane id=":B1_16_0" index="0" speed="9.55" length="13.08" width="3.50" shape="125.00,128.83 126.44,126.44 130.42,124.05 136.00,123.25"/>
    </edge>
    <edge id=":B1_4" function="internal">
        <lane id=":B1_4_0" index="0" speed="6.62" length="9.27" width="3.50" shape="136.00,130.25 133.48,130.61 131.69,131.69 130.61,133.48 130.25,136.00"/>
    </edge>
    <edge id=":B1_5" function="internal">
        <lane id=":B1_5_0" index="0" speed="40.00" length="22.00" width="3.50" shape="136.00,130.25 114.00,130.25"/>
        <lane id=":B1_5_1" index="1" speed="40.00" length="22.00" width="3.50" shape="136.00,126.75 114.00,126.75"/>
    </edge>
    <edge id=":B1_7" function="internal">
        <lane id=":B1_7_0" index="0" speed="9.55" length="20.56" width="3.50" shape="136.00,126.75 130.42,125.95 126.44,123.56 124.05,119.58 123.25,114.00"/>
    </edge>
    <edge id=":B1_8" function="internal">
        <lane id=":B1_8_0" index="0" speed="6.62" length="9.27" width="3.50" shape="130.25,114.00 130.61,116.52 131.69,118.31 133.48,119.39 136.00,119.75"/>
    </edge>
    <edge id=":B1_9" function="internal">
        <lane id=":B1_9_0" index="0" speed="40.00" length="22.00" width="3.50" shape="130.25,114.00 130.25,136.00"/>
        <lane id=":B1_9_1" index="1" speed="40.00" length="22.00" width="3.50" shape="126.75,114.00 126.75,136.00"/>
    </edge>
    <edge id=":B1_11" function="internal">
        <lane id=":B1_11_0" index="0" speed="9.55" length="7.49" width="3.50" shape="126.75,114.00 125.95,119.58 125.00,121.17"/>
    </edge>
    <edge id=":B1_17" function="internal">
        <lane id=":B1_17_0" index="0" speed="9.55" length="13.08" width="3.50" shape="125.00,121.17 123.56,123.56 119.58,125.95 114.00,126.75"/>
    </edge>
    <edge id=":B1_12" function="internal">
        <lane id=":B1_12_0" index="0" speed="6.62" length="9.27" width="3.50" shape="114.00,119.75 116.52,119.39 118.31,118.31 119.39,116.52 119.75,114.00"/>
    </edge>
    <edge id=":B1_13" function="internal">
        <lane id=":B1_13_0" index="0" speed="40.00" length="22.00" width="3.50" shape="114.00,119.75 136.00,119.75"/>
        <lane id=":B1_13_1" index="1" speed="40.00" length="22.00" width="3.50" shape="114.00,123.25 136.00,123.25"/>
    </edge>
    <edge id=":B1_15" function="internal">
        <lane id=":B1_15_0" index="0" speed="9.55" length="20.56" width="3.50" shape="114.00,123.25 119.58,124.05 123.56,126.44 125.95,130.42 126.75,136.00"/>
    </edge>
    <edge id=":B2_0" function="internal">
        <lane id=":B2_0_0" index="0" speed="6.62" length="9.27" width="3.50" shape="119.75,236.00 119.39,233.48 118.31,231.69 116.52,230.61 114.00,230.25"/>
    </edge>
    <edge id=":B2_1" function="internal">
        <lane id=":B2_1_0" index="0" speed="40.00" length="22.00" width="3.50" shape="119.75,236.00 119.75,214.00"/>
        <lane id=":B2_1_1" index="1" speed="40.00" length="22.00" width="3.50" shape="123.25,236.00 123.25,214.00"/>
    </edge>
    <edge id=":B2_3" function="internal">
        <lane id=":B2_3_0" index="0" speed="9.55" length="7.49" width="3.50" shape="123.25,236.00 124.05,230.42 125.00,228.83"/>
    </edge>
    <edge id=":B2_16" function="internal">
        <lane id=":B2_16_0" index="0" speed="9.55" length="13.08" width="3.50" shape="125.00,228.83 126.44,226.44 130.42,224.05 136.00,223.25"/>
    </edge>
    <edge id=":B2_4" function="internal">
        <lane id=":B2_4_0" index="0" speed="6.62" length="9.27" width="3.50" shape="136.00,230.25 133.48,230.61 131.69,231.69 130.61,233.48 130.25,236.00"/>
    </edge>
    <edge id=":B2_5" function="internal">
        <lane id=":B2_5_0" index="0" speed="40.00" length="22.00" width="3.50" shape="136.00,230.25 114.00,230.25"/>
        <lane id=":B2_5_1" index="1" speed="40.00" length="22.00" width="3.50" shape="136.00,226.75 114.00,226.75"/>
    </edge>
    <edge id=":B2_7" function="internal">
        <lane id=":B2_7_0" index="0" speed="9.55" length="20.56" width="3.50" shape="136.00,226.75 130.42,225.95 126.44,223.56 124.05,219.58 123.25,214.00"/>
    </edge>
    <edge id=":B2_8" function="internal">
        <lane id=":B2_8_0" index="0" speed="6.62" length="9.27" width="3.50" shape="130.25,214.00 130.61,216.52 131.69,218.31 133.48,219.39 136.00,219.75"/>
    </edge>
    <edge id=":B2_9" function="internal">
        <lane id=":B2_9_0" index="0" speed="40.00" length="22.00" width="3.50" shape="130.25,214.00 130.25,236.00"/>
        <lane id=":B2_9_1" index="1" speed="40.00" length="22.00" width="3.50" shape="126.75,214.00 126.75,236.00"/>
    </edge>
    <edge id=":B2_11" function="internal">
        <lane id=":B2_11_0" index="0" speed="9.55" length="7.49" width="3.50" shape="126.75,214.00 125.95,219.58 125.00,221.17"/>
    </edge>
    <edge id=":B2_17" function="internal">
        <lane id=":B2_17_0" index="0" speed="9.55" length="13.08" width="3.50" shape="125.00,221.17 123.56,223.56 119.58,225.95 114.00,226.75"/>
    </edge>
    <edge id=":B2_12" function="internal">
        <lane id=":B2_12_0" index="0" speed="6.62" length="9.27" width="3.50" shape="114.00,219.75 116.52,219.39 118.31,218.31 119.39,216.52 119.75,214.00"/>
    </edge>
    <edge id=":B2_13" function="internal">
        <lane id=":B2_13_0" index="0" speed="40.00" length="22.00" width="3.50" shape="114.00,219.75 136.00,219.75"/>
        <lane id=":B2_13_1" index="1" speed="40.00" length="22.00" width="3.50" shape="114.00,223.25 136.00,223.25"/>
    </edge>
    <edge id=":B2_15" function="internal">
        <lane id=":B2_15_0" index="0" speed="9.55" length="20.56" width="3.50" shape="114.00,223.25 119.58,224.05 123.56,226.44 125.95,230.42 126.75,236.00"/>
    </edge>
    <edge id=":C0_0" function="internal">
        <lane id=":C0_0_0" index="0" speed="6.62" length="9.27" width="3.50" shape="219.75,36.00 219.39,33.48 218.31,31.69 216.52,30.61 214.00,30.25"/>
    </edge>
    <edge id=":C0_1" function="internal">
        <lane id=":C0_1_0" index="0" speed="40.00" length="22.00" width="3.50" shape="219.75,36.00 219.75,14.00"/>
        <lane id=":C0_1_1" index="1" speed="40.00" length="22.00" width="3.50" shape="223.25,36.00 223.25,14.00"/>
    </edge>
    <edge id=":C0_3" function="internal">
        <lane id=":C0_3_0" index="0" speed="9.55" length="7.49" width="3.50" shape="223.25,36.00 224.05,30.42 225.00,28.83"/>
    </edge>
    <edge id=":C0_14" function="internal">
        <lane id=":C0_14_0" index="0" speed="9.55" length="13.08" width="3.50" shape="225.00,28.83 226.44,26.44 230.42,24.05 236.00,23.25"/>
    </edge>
    <edge id=":C0_4" function="internal">
        <lane id=":C0_4_0" index="0" speed="6.62" length="9.27" width="3.50" shape="236.00,30.25 233.48,30.61 231.69,31.69 230.61,33.48 230.25,36.00"/>
    </edge>
    <edge id=":C0_5" function="internal">
        <lane id=":C0_5_0" index="0" speed="40.00" length="22.00" width="3.50" shape="236.00,30.25 214.00,30.25"/>
        <lane id=":C0_5_1" index="1" speed="40.00" length="22.00" width="3.50" shape="236.00,26.75 214.00,26.75"/>
    </edge>
    <edge id=":C0_7" function="internal">
        <lane id=":C0_7_0" index="0" speed="40.00" length="22.00" width="3.50" shape="230.25,14.00 230.25,36.00"/>
        <lane id=":C0_7_1" index="1" speed="40.00" length="22.00" width="3.50" shape="226.75,14.00 226.75,36.00"/>
    </edge>
    <edge id=":C0_9" function="internal">
        <lane id=":C0_9_0" index="0" speed="9.55" length="7.49" width="3.50" shape="226.75,14.00 225.95,19.58 225.00,21.17"/>
    </edge>
    <edge id=":C0_15" function="internal">
        <lane id=":C0_15_0" index="0" speed="9.55" length="13.08" width="3.50" shape="225.00,21.17 223.56,23.56 219.58,25.95 214.00,26.75"/>
    </edge>
    <edge id=":C0_10" function="internal">
        <lane id=":C0_10_0" index="0" speed="6.62" length="9.27" width="3.50" shape="214.00,19.75 216.52,19.39 218.31,18.31 219.39,16.52 219.75,14.00"/>
    </edge>
    <edge id=":C0_11" function="internal">
        <lane id=":C0_11_0" index="0" speed="40.00" length="22.00" width="3.50" shape="214.00,19.75 236.00,19.75"/>
        <lane id=":C0_11_1" index="1" speed="40.00" length="22.00" width="3.50" shape="214.00,23.25 236.00,23.25"/>
    </edge>
    <edge id=":C0_13" function="internal">
        <lane id=":C0_13_0" index="0" speed="9.55" length="20.56" width="3.50" shape="214.00,23.25 219.58,24.05 223.56,26.44 225.95,30.42 226.75,36.00"/>
    </edge>
    <edge id=":C1_0" function="internal">
        <lane id=":C1_0_0" index="0" speed="6.62" length="9.27" width="3.50" shape="219.75,136.00 219.39,133.48 218.31,131.69 216.52,130.61 214.00,130.25"/>
    </edge>
    <edge id=":C1_1" function="internal">
        <lane id=":C1_1_0" index="0" speed="40.00" length="22.00" width="3.50" shape="219.75,136.00 219.75,114.00"/>
        <lane id=":C1_1_1" index="1" speed="40.00" length="22.00" width="3.50" shape="223.25,136.00 223.25,114.00"/>
    </edge>
    <edge id=":C1_3" function="internal">
        <lane id=":C1_3_0" index="0" speed="9.55" length="7.49" width="3.50" shape="223.25,136.00 224.05,130.42 225.00,128.83"/>
    </edge>
    <edge id=":C1_16" function="internal">
        <lane id=":C1_16_0" index="0" speed="9.55" length="13.08" width="3.50" shape="225.00,128.83 226.44,126.44 230.42,124.05 236.00,123.25"/>
    </edge>
    <edge id=":C1_4" function="internal">
        <lane id=":C1_4_0" index="0" speed="6.62" length="9.27" width="3.50" shape="236.00,130.25 233.48,130.61 231.69,131.69 230.61,133.48 230.25,136.00"/>
    </edge>
    <edge id=":C1_5" function="internal">
        <lane id=":C1_5_0" index="0" speed="40.00" length="22.00" width="3.50" shape="236.00,130.25 214.00,130.25"/>
        <lane id=":C1_5_1" index="1" speed="40.00" length="22.00" width="3.50" shape="236.00,126.75 214.00,126.75"/>
    </edge>
    <edge id=":C1_7" function="internal">
        <lane id=":C1_7_0" index="0" speed="9.55" length="20.56" width="3.50" shape="236.00,126.75 230.42,125.95 226.44,123.56 224.05,119.58 223.25,114.00"/>
    </edge>
    <edge id=":C1_8" function="internal">
        <lane id=":C1_8_0" index="0" speed="6.62" length="9.27" width="3.50" shape="230.25,114.00 230.61,116.52 231.69,118.31 233.48,119.39 236.00,119.75"/>
    </edge>
    <edge id=":C1_9" function="internal">
        <lane id=":C1_9_0" index="0" speed="40.00" length="22.00" width="3.50" shape="230.25,114.00 230.25,136.00"/>
        <lane id=":C1_9_1" index="1" speed="40.00" length="22.00" width="3.50" shape="226.75,114.00 226.75,136.00"/>
    </edge>
    <edge id=":C1_11" function="internal">
        <lane id=":C1_11_0" index="0" speed="9.55" length="7.49" width="3.50" shape="226.75,114.00 225.95,119.58 225.00,121.17"/>
    </edge>
    <edge id=":C1_17" function="internal">
        <lane id=":C1_17_0" index="0" speed="9.55" length="13.08" width="3.50" shape="225.00,121.17 223.56,123.56 219.58,125.95 214.00,126.75"/>
    </edge>
    <edge id=":C1_12" function="internal">
        <lane id=":C1_12_0" index="0" speed="6.62" length="9.27" width="3.50" shape="214.00,119.75 216.52,119.39 218.31,118.31 219.39,116.52 219.75,114.00"/>
    </edge>
    <edge id=":C1_13" function="internal">
        <lane id=":C1_13_0" index="0" speed="40.00" length="22.00" width="3.50" shape="214.00,119.75 236.00,119.75"/>
        <lane id=":C1_13_1" index="1" speed="40.00" length="22.00" width="3.50" shape="214.00,123.25 236.00,123.25"/>
    </edge>
    <edge id=":C1_15" function="internal">
        <lane id=":C1_15_0" index="0" speed="9.55" length="20.56" width="3.50" shape="214.00,123.25 219.58,124.05 223.56,126.44 225.95,130.42 226.75,136.00"/>
    </edge>
    <edge id=":C2_0" function="internal">
        <lane id=":C2_0_0" index="0" speed="6.62" length="9.27" width="3.50" shape="219.75,236.00 219.39,233.48 218.31,231.69 216.52,230.61 214.00,230.25"/>
    </edge>
    <edge id=":C2_1" function="internal">
        <lane id=":C2_1_0" index="0" speed="40.00" length="22.00" width="3.50" shape="219.75,236.00 219.75,214.00"/>
        <lane id=":C2_1_1" index="1" speed="40.00" length="22.00" width="3.50" shape="223.25,236.00 223.25,214.00"/>
    </edge>
    <edge id=":C2_3" function="internal">
        <lane id=":C2_3_0" index="0" speed="40.00" length="22.00" width="3.50" shape="236.00,230.25 214.00,230.25"/>
        <lane id=":C2_3_1" index="1" speed="40.00" length="22.00" width="3.50" shape="236.00,226.75 214.00,226.75"/>
    </edge>
    <edge id=":C2_5" function="internal">
        <lane id=":C2_5_0" index="0" speed="9.55" length="20.56" width="3.50" shape="236.00,226.75 230.42,225.95 226.44,223.56 224.05,219.58 223.25,214.00"/>
    </edge>
    <edge id=":C2_6" function="internal">
        <lane id=":C2_6_0" index="0" speed="6.62" length="9.27" width="3.50" shape="230.25,214.00 230.61,216.52 231.69,218.31 233.48,219.39 236.00,219.75"/>
    </edge>
    <edge id=":C2_7" function="internal">
        <lane id=":C2_7_0" index="0" speed="40.00" length="22.00" width="3.50" shape="230.25,214.00 230.25,236.00"/>
        <lane id=":C2_7_1" index="1" speed="40.00" length="22.00" width="3.50" shape="226.75,214.00 226.75,236.00"/>
    </edge>
    <edge id=":C2_9" function="internal">
        <lane id=":C2_9_0" index="0" speed="9.55" length="7.49" width="3.50" shape="226.75,214.00 225.95,219.58 225.00,221.17"/>
    </edge>
    <edge id=":C2_14" function="internal">
        <lane id=":C2_14_0" index="0" speed="9.55" length="13.08" width="3.50" shape="225.00,221.17 223.56,223.56 219.58,225.95 214.00,226.75"/>
    </edge>
    <edge id=":C2_10" function="internal">
        <lane id=":C2_10_0" index="0" speed="6.62" length="9.27" width="3.50" shape="214.00,219.75 216.52,219.39 218.31,218.31 219.39,216.52 219.75,214.00"/>
    </edge>
    <edge id=":C2_11" function="internal">
        <lane id=":C2_11_0" index="0" speed="40.00" length="22.00" width="3.50" shape="214.00,219.75 236.00,219.75"/>
        <lane id=":C2_11_1" index="1" speed="40.00" length="22.00" width="3.50" shape="214.00,223.25 236.00,223.25"/>
    </edge>
    <edge id=":C2_13" function="internal">
        <lane id=":C2_13_0" index="0" speed="9.55" length="20.56" width="3.50" shape="214.00,223.25 219.58,224.05 223.56,226.44 225.95,230.42 226.75,236.00"/>
    </edge>

    <edge id="A0A1" from="A0" to="A1" priority="-1">
        <lane id="A0A1_0" index="0" speed="40.00" length="78.00" width="3.50" shape="30.25,36.00 30.25,114.00"/>
        <lane id="A0A1_1" index="1" speed="40.00" length="78.00" width="3.50" shape="26.75,36.00 26.75,114.00"/>
    </edge>
    <edge id="A0B0" from="A0" to="B0" priority="-1">
        <lane id="A0B0_0" index="0" speed="40.00" length="78.00" width="3.50" shape="36.00,19.75 114.00,19.75"/>
        <lane id="A0B0_1" index="1" speed="40.00" length="78.00" width="3.50" shape="36.00,23.25 114.00,23.25"/>
    </edge>
    <edge id="A0bottom0" from="A0" to="bottom0" priority="-1">
        <lane id="A0bottom0_0" index="0" speed="40.00" length="14.00" width="3.50" shape="19.75,14.00 19.75,0.00"/>
        <lane id="A0bottom0_1" index="1" speed="40.00" length="14.00" width="3.50" shape="23.25,14.00 23.25,0.00"/>
    </edge>
    <edge id="A0left0" from="A0" to="left0" priority="-1">
        <lane id="A0left0_0" index="0" speed="40.00" length="14.00" width="3.50" shape="14.00,30.25 0.00,30.25"/>
        <lane id="A0left0_1" index="1" speed="40.00" length="14.00" width="3.50" shape="14.00,26.75 0.00,26.75"/>
    </edge>
    <edge id="A1A0" from="A1" to="A0" priority="-1">
        <lane id="A1A0_0" index="0" speed="40.00" length="78.00" width="3.50" shape="19.75,114.00 19.75,36.00"/>
        <lane id="A1A0_1" index="1" speed="40.00" length="78.00" width="3.50" shape="23.25,114.00 23.25,36.00"/>
    </edge>
    <edge id="A1A2" from="A1" to="A2" priority="-1">
        <lane id="A1A2_0" index="0" speed="40.00" length="78.00" width="3.50" shape="30.25,136.00 30.25,214.00"/>
        <lane id="A1A2_1" index="1" speed="40.00" length="78.00" width="3.50" shape="26.75,136.00 26.75,214.00"/>
    </edge>
    <edge id="A1B1" from="A1" to="B1" priority="-1">
        <lane id="A1B1_0" index="0" speed="40.00" length="78.00" width="3.50" shape="36.00,119.75 114.00,119.75"/>
        <lane id="A1B1_1" index="1" speed="40.00" length="78.00" width="3.50" shape="36.00,123.25 114.00,123.25"/>
    </edge>
    <edge id="A1left1" from="A1" to="left1" priority="-1">
        <lane id="A1left1_0" index="0" speed="40.00" length="14.00" width="3.50" shape="14.00,130.25 0.00,130.25"/>
        <lane id="A1left1_1" index="1" speed="40.00" length="14.00" width="3.50" shape="14.00,126.75 0.00,126.75"/>
    </edge>