<?xml version="1.0" encoding="UTF-8"?>

<!-- generated on Sun Mar 24 17:35:18 2019 by Eclipse SUMO jtrrouter Version 1.0.1
<configuration xmlns:xsi="http://www.w3.org/2001/XMLSchema-instance" xsi:noNamespaceSchemaLocation="http://sumo.dlr.de/xsd/jtrrouterConfiguration.xsd">

    <input>
        <net-file value="grid_demo.net.xml"/>
        <route-files value="grid_demo.rou.xml"/>
        <turn-ratio-files value="grid_demo.turndefs.xml"/>
    </input>

    <output>
        <output-file value="grid_demo_jtrrouter.rou.xml"/>
    </output>

    <processing>
        <no-internal-links value="true"/>
    </processing>

    <time>
        <begin value="0"/>
        <end value="60"/>
    </time>

    <report>
        <verbose value="true"/>
        <ignore-errors value="true"/>
    </report>

</configuration>
-->

<routes xmlns:xsi="http://www.w3.org/2001/XMLSchema-instance" xsi:noNamespaceSchemaLocation="http://sumo.dlr.de/xsd/routes_file.xsd">
    <vType id="vtype0" length="2.50" minGap="2.50" maxSpeed="30.00" color="255,1,0" accel="2.6" decel="4.5" sigma="0.5"/>
    <vehicle id="flow0.0" type="vtype0" depart="1.00" departLane="0" departSpeed="max">
        <route edges="left0A0 A0B0 B0C0 C0C1 C1C2 C2top2"/>
    </vehicle>
    <vType id="vtype1" length="2.50" minGap="2.50" maxSpeed="30.00" color="1,255,0" accel="2.6" decel="4.5" sigma="0.5"/>
    <vehicle id="flow1.0" type="vtype1" depart="1.00" departLane="1" departSpeed="max">
        <route edges="left0A0 A0A1 A1B1 B1B0 B0bottom1"/>
    </vehicle>
    <vehicle id="flow10.0" type="vtype0" depart="1.00" departLane="0" departSpeed="max">
        <route edges="top2C2 C2C1 C1B1 B1B0 B0C0 C0bottom2"/>
    </vehicle>
    <vehicle id="flow11.0" type="vtype1" depart="1.00" departLane="1" departSpeed="max">
        <route edges="top2C2 C2C1 C1C0 C0B0 B0bottom1"/>
    </vehicle>
    <vehicle id="flow12.0" type="vtype0" depart="1.00" departLane="0" departSpeed="max">
        <route edges="right0C0 C0B0 B0B1 B1A1 A1left1"/>
    </vehicle>
    <vehicle id="flow13.0" type="vtype1" depart="1.00" departLane="1" departSpeed="max">
        <route edges="right0C0 C0B0 B0B1 B1C1 C1right1"/>
    </vehicle>
    <vehicle id="flow14.0" type="vtype0" depart="1.00" departLane="0" departSpeed="max">
        <route edges="right1C1 C1C2 C2right2"/>
    </vehicle>
    <vehicle id="flow15.0" type="vtype1" depart="1.00" departLane="1" departSpeed="max">
        <route edges="right1C1 C1C0 C0B0 B0A0 A0bottom0"/>
    </vehicle>
    <vehicle id="flow16.0" type="vtype0" depart="1.00" departLane="0" departSpeed="max">
        <route edges="right2C2 C2C1 C1B1 B1B2 B2A2 A2left2"/>
    </vehicle>
    <vehicle id="flow17.0" type="vtype1" depart="1.00" departLane="1" departSpeed="max">
        <route edges="right2C2 C2B2 B2A2 A2A1 A1A0 A0left0"/>
    </vehicle>
    <vehicle id="flow18.0" type="vtype0" depart="1.00" departLane="0" departSpeed="max">
        <route edges="bottom0A0 A0A1 A1A2 A2B2 B2C2 C2C1 C1right1"/>
    </vehicle>
    <vehicle id="flow19.0" type="vtype1" depart="1.00" departLane="1" departSpeed="max">
        <route edges="bottom0A0 A0A1 A1B1 B1C1 C1right1"/>
    </vehicle>
    <vehicle id="flow2.0" type="vtype0" depart="1.00" departLane="0" departSpeed="max">
        <route edges="left1A1 A1B1 B1C1 C1right1"/>
    </vehicle>
    <vehicle id="flow20.0" type="vtype0" depart="1.00" departLane="0" departSpeed="max">
        <route edges="bottom1B0 B0B1 B1B2 B2top1"/>
    </vehicle>
    <vehicle id="flow21.0" type="vtype1" depart="1.00" departLane="1" departSpeed="max">
        <route edges="bottom1B0 B0A0 A0left0"/>
    </vehicle>
    <vehicle id="flow22.0" type="vtype0" depart="1.00" departLane="0" departSpeed="max">
        <route edges="bottom2C0 C0B0 B0B1 B1A1 A1A0 A0bottom0"/>
    </vehicle>
    <vehicle id="flow23.0" type="vtype1" depart="1.00" departLane="1" departSpeed="max">
        <route edges="bottom2C0 C0C1 C1right1"/>
    </vehicle>
    <vehicle id="flow3.0" type="vtype1" depart="1.00" departLane="1" departSpeed="max">
        <route edges="left1A1 A1A0 A0B0 B0bottom1"/>
    </vehicle>
    <vehicle id="flow4.0" type="vtype0" depart="1.00" departLane="0" departSpeed="max">
        <route edges="left2A2 A2B2 B2C2 C2C1 C1C0 C0B0 B0A0 A0A1 A1A2 A2top0"/>
    </vehicle>
    <vehicle id="flow5.0" type="vtype1" depart="1.00" departLane="1" departSpeed="max">
        <route edges="left2A2 A2B2 B2C2 C2C1 C1C0 C0bottom2"/>
    </vehicle>
    <vehicle id="flow6.0" type="vtype0" depart="1.00" departLane="0" departSpeed="max">
        <route edges="top0A2 A2A1 A1A0 A0bottom0"/>
    </vehicle>
    <vehicle id="flow7.0" type="vtype1" depart="1.00" departLane="1" departSpeed="max">
        <route edges="top0A2 A2B2 B2C2 C2right2"/>
    </vehicle>
    <vehicle id="flow8.0" type="vtype0" depart="1.00" departLane="0" departSpeed="max">
        <route edges="top1B2 B2B1 B1C1 C1C0 C0bottom2"/>
    </vehicle>
    <vehicle id="flow9.0" type="vtype1" depart="1.00" departLane="1" departSpeed="max">
        <route edges="top1B2 B2A2 A2top0"/>
    </vehicle>
    <vehicle id="flow0.1" type="vtype0" depart="16.00" departLane="0" departSpeed="max">
        <route edges="left0A0 A0B0 B0bottom1"/>
    </vehicle>
    <vehicle id="flow1.1" type="vtype1" depart="16.00" departLane="1" departSpeed="max">
        <route edges="left0A0 A0B0 B0C0 C0right0"/>
    </vehicle>
    <vehicle id="flow10.1" type="vtype0" depart="16.00" departLane="0" departSpeed="max">
        <route edges="top2C2 C2C1 C1right1"/>
    </vehicle>
    <vehicle id="flow11.1" type="vtype1" depart="16.00" departLane="1" departSpeed="max">
        <route edges="top2C2 C2C1 C1right1"/>
    </vehicle>
    <vehicle id="flow12.1" type="vtype0" depart="16.00" departLane="0" departSpeed="max">
        <route edges="right0C0 C0B0 B0A0 A0bottom0"/>
    </vehicle>
    <vehicle id="flow13.1" type="vtype1" depart="16.00" departLane="1" departSpeed="max">
        <route edges="right0C0 C0B0 B0A0 A0bottom0"/>
    </vehicle>
    <vehicle id="flow14.1" type="vtype0" depart="16.00" departLane="0" departSpeed="max">
        <route edges="right1C1 C1C0 C0right0"/>
    </vehicle>
    <vehicle id="flow15.1" type="vtype1" depart="16.00" departLane="1" departSpeed="max">
        <route edges="right1C1 C1B1 B1B0 B0A0 A0left0"/>
    </vehicle>
    <vehicle id="flow16.1" type="vtype0" depart="16.00" departLane="0" departSpeed="max">
        <route edges="right2C2 C2B2 B2top1"/>
    </vehicle>
    <vehicle id="flow17.1" type="vtype1" depart="16.00" departLane="1" departSpeed="max">
        <route edges="right2C2 C2B2 B2A2 A2A1 A1A0 A0bottom0"/>
    </vehicle>
    <vehicle id="flow18.1" type="vtype0" depart="16.00" departLane="0" departSpeed="max">
        <route edges="bottom0A0 A0B0 B0bottom1"/>
    </vehicle>
    <vehicle id="flow19.1" type="vtype1" depart="16.00" departLane="1" departSpeed="max">
        <route edges="bottom0A0 A0A1 A1left1"/>
    </vehicle>
    <vehicle id="flow2.1" type="vtype0" depart="16.00" departLane="0" departSpeed="max">
        <route edges="left1A1 A1A2 A2top0"/>
    </vehicle>
    <vehicle id="flow20.1" type="vtype0" depart="16.00" departLane="0" departSpeed="max">
        <route edges="bottom1B0 B0B1 B1B2 B2C2 C2right2"/>
    </vehicle>
    <vehicle id="flow21.1" type="vtype1" depart="16.00" departLane="1" departSpeed="max">
        <route edges="bottom1B0 B0B1 B1B2 B2top1"/>
    </vehicle>
    <vehicle id="flow22.1" type="vtype0" depart="16.00" departLane="0" departSpeed="max">
        <route edges="bottom2C0 C0B0 B0bottom1"/>
    </vehicle>
    <vehicle id="flow23.1" type="vtype1" depart="16.00" departLane="1" departSpeed="max">
        <route edges="bottom2C0 C0C1 C1right1"/>
    </vehicle>
    <vehicle id="flow3.1" type="vtype1" depart="16.00" departLane="1" departSpeed="max">
        <route edges="left1A1 A1B1 B1C1 C1C0 C0right0"/>
    </vehicle>
    <vehicle id="flow4.1" type="vtype0" depart="16.00" departLane="0" departSpeed="max">
        <route edges="left2A2 A2B2 B2C2 C2top2"/>
    </vehicle>
    <vehicle id="flow5.1" type="vtype1" depart="16.00" departLane="1" departSpeed="max">
        <route edges="left2A2 A2A1 A1A0 A0left0"/>
    </vehicle>
    <vehicle id="flow6.1" type="vtype0" depart="16.00" departLane="0" departSpeed="max">
        <route edges="top0A2 A2A1 A1A0 A0B0 B0C0 C0right0"/>
    </vehicle>
    <vehicle id="flow7.1" type="vtype1" depart="16.00" departLane="1" departSpeed="max">
        <route edges="top0A2 A2A1 A1A0 A0left0"/>
    </vehicle>
    <vehicle id="flow8.1" type="vtype0" depart="16.00" departLane="0" departSpeed="max">
        <route edges="top1B2 B2B1 B1A1 A1left1"/>
    </vehicle>
    <vehicle id="flow9.1" type="vtype1" depart="16.00" departLane="1" departSpeed="max">
        <route edges="top1B2 B2C2 C2right2"/>
    </vehicle>
    <vehicle id="flow0.2" type="vtype0" depart="31.00" departLane="0" departSpeed="max">
        <route edges="left0A0 A0B0 B0C0 C0right0"/>
    </vehicle>
    <vehicle id="flow1.2" type="vtype1" depart="31.00" departLane="1" departSpeed="max">
        <route edges="left0A0 A0B0 B0C0 C0right0"/>
    </vehicle>
    <vehicle id="flow10.2" type="vtype0" depart="31.00" departLane="0" departSpeed="max">
        <route edges="top2C2 C2C1 C1B1 B1A1 A1A2 A2left2"/>
    </vehicle>
    <vehicle id="flow11.2" type="vtype1" depart="31.00" departLane="1" departSpeed="max">
        <route edges="top2C2 C2C1 C1C0 C0bottom2"/>
    </vehicle>
    <vehicle id="flow12.2" type="vtype0" depart="31.00" departLane="0" departSpeed="max">
        <route edges="right0C0 C0C1 C1B1 B1B0 B0A0 A0left0"/>
    </vehicle>
    <vehicle id="flow13.2" type="vtype1" depart="31.00" departLane="1" departSpeed="max">
        <route edges="right0C0 C0B0 B0A0 A0A1 A1A2 A2B2 B2top1"/>
    </vehicle>
    <vehicle id="flow14.2" type="vtype0" depart="31.00" departLane="0" departSpeed="max">
        <route edges="right1C1 C1B1 B1A1 A1left1"/>
    </vehicle>
    <vehicle id="flow15.2" type="vtype1" depart="31.00" departLane="1" departSpeed="max">
        <route edges="right1C1 C1B1 B1A1 A1A0 A0left0"/>
    </vehicle>
    <vehicle id="flow16.2" type="vtype0" depart="31.00" departLane="0" departSpeed="max">
        <route edges="right2C2 C2B2 B2top1"/>
    </vehicle>
    <vehicle id="flow17.2" type="vtype1" depart="31.00" departLane="1" departSpeed="max">
        <route edges="right2C2 C2B2 B2top1"/>
    </vehicle>
    <vehicle id="flow18.2" type="vtype0" depart="31.00" departLane="0" departSpeed="max">
        <route edges="bottom0A0 A0A1 A1A2 A2top0"/>
    </vehicle>
    <vehicle id="flow19.2" type="vtype1" depart="31.00" departLane="1" departSpeed="max">
        <route edges="bottom0A0 A0A1 A1B1 B1C1 C1right1"/>
    </vehicle>
    <vehicle id="flow2.2" type="vtype0" depart="31.00" departLane="0" departSpeed="max">
        <route edges="left1A1 A1A0 A0bottom0"/>
    </vehicle>
    <vehicle id="flow20.2" type="vtype0" depart="31.00" departLane="0" departSpeed="max">
        <route edges="bottom1B0 B0A0 A0left0"/>
    </vehicle>
    <vehicle id="flow21.2" type="vtype1" depart="31.00" departLane="1" departSpeed="max">
        <route edges="bottom1B0 B0A0 A0bottom0"/>
    </vehicle>
    <vehicle id="flow22.2" type="vtype0" depart="31.00" departLane="0" departSpeed="max">
        <route edges="bottom2C0 C0C1 C1C2 C2top2"/>
    </vehicle>
    <vehicle id="flow23.2" type="vtype1" depart="31.00" departLane="1" departSpeed="max">
        <route edges="bottom2C0 C0B0 B0bottom1"/>
    </vehicle>
    <vehicle id="flow3.2" type="vtype1" depart="31.00" departLane="1" departSpeed="max">
        <route edges="left1A1 A1A2 A2B2 B2C2 C2C1 C1C0 C0B0 B0B1 B1C1 C1right1"/>
    </vehicle>
    <vehicle id="flow4.2" type="vtype0" depart="31.00" departLane="0" departSpeed="max">
        <route edges="left2A2 A2A1 A1left1"/>
    </vehicle>
    <vehicle id="flow5.2" type="vtype1" depart="31.00" departLane="1" departSpeed="max">
        <route edges="left2A2 A2A1 A1A0 A0bottom0"/>
    </vehicle>
    <vehicle id="flow6.2" type="vtype0" depart="31.00" departLane="0" departSpeed="max">
        <route edges="top0A2 A2A1 A1A0 A0bottom0"/>
    </vehicle>
    <vehicle id="flow7.2" type="vtype1" depart="31.00" departLane="1" departSpeed="max">
        <route edges="top0A2 A2B2 B2top1"/>
    </vehicle>
    <vehicle id="flow8.2" type="vtype0" depart="31.00" departLane="0" departSpeed="max">
        <route edges="top1B2 B2B1 B1C1 C1C2 C2B2 B2A2 A2left2"/>
    </vehicle>
    <vehicle id="flow9.2" type="vtype1" depart="31.00" departLane="1" departSpeed="max">
        <route edges="top1B2 B2A2 A2A1 A1A0 A0left0"/>
    </vehicle>
    <vehicle id="flow0.3" type="vtype0" depart="46.00" departLane="0" departSpeed="max">
        <route edges="left0A0 A0A1 A1A2 A2left2"/>
    </vehicle>
    <vehicle id="flow1.3" type="vtype1" depart="46.00" departLane="1" departSpeed="max">
        <route edges="left0A0 A0A1 A1left1"/>
    </vehicle>
    <vehicle id="flow10.3" type="vtype0" depart="46.00" departLane="0" departSpeed="max">
        <route edges="top2C2 C2C1 C1C0 C0bottom2"/>
    </vehicle>
    <vehicle id="flow11.3" type="vtype1" depart="46.00" departLane="1" departSpeed="max">
        <route edges="top2C2 C2C1 C1C0 C0right0"/>
    </vehicle>
    <vehicle id="flow12.3" type="vtype0" depart="46.00" departLane="0" departSpeed="max">
        <route edges="right0C0 C0B0 B0A0 A0bottom0"/>
    </vehicle>
    <vehicle id="flow13.3" type="vtype1" depart="46.00" departLane="1" departSpeed="max">
        <route edges="right0C0 C0C1 C1C2 C2B2 B2A2 A2left2"/>
    </vehicle>
    <vehicle id="flow14.3" type="vtype0" depart="46.00" departLane="0" departSpeed="max">
        <route edges="right1C1 C1C0 C0B0 B0bottom1"/>
    </vehicle>
    <vehicle id="flow15.3" type="vtype1" depart="46.00" departLane="1" departSpeed="max">
        <route edges="right1C1 C1C2 C2top2"/>
    </vehicle>
    <vehicle id="flow16.3" type="vtype0" depart="46.00" departLane="0" departSpeed="max">
        <route edges="right2C2 C2B2 B2top1"/>
    </vehicle>
    <vehicle id="flow17.3" type="vtype1" depart="46.00" departLane="1" departSpeed="max">
        <route edges="right2C2 C2B2 B2A2 A2left2"/>
    </vehicle>
    <vehicle id="flow18.3" type="vtype0" depart="46.00" departLane="0" departSpeed="max">
        <route edges="bottom0A0 A0B0 B0bottom1"/>
    </vehicle>
    <vehicle id="flow19.3" type="vtype1" depart="46.00" departLane="1" departSpeed="max">
        <route edges="bottom0A0 A0A1 A1left1"/>
    </vehicle>
    <vehicle id="flow2.3" type="vtype0" depart="46.00" departLane="0" departSpeed="max">
        <route edges="left1A1 A1A0 A0bottom0"/>
    </vehicle>
    <vehicle id="flow20.3" type="vtype0" depart="46.00" departLane="0" departSpeed="max">
        <route edges="bottom1B0 B0B1 B1B2 B2A2 A2left2"/>
    </vehicle>
    <vehicle id="flow21.3" type="vtype1" depart="46.00" departLane="1" departSpeed="max">
        <route edges="bottom1B0 B0C0 C0right0"/>
    </vehicle>
    <vehicle id="flow22.3" type="vtype0" depart="46.00" departLane="0" departSpeed="max">
        <route edges="bottom2C0 C0C1 C1B1 B1B2 B2top1"/>
    </vehicle>
    <vehicle id="flow23.3" type="vtype1" depart="46.00" departLane="1" departSpeed="max">
        <route edges="bottom2C0 C0C1 C1C2 C2top2"/>
    </vehicle>
    <vehicle id="flow3.3" type="vtype1" depart="46.00" departLane="1" departSpeed="max">
        <route edges="left1A1 A1B1 B1C1 C1right1"/>
    </vehicle>
    <vehicle id="flow4.3" type="vtype0" depart="46.00" departLane="0" departSpeed="max">
        <route edges="left2A2 A2B2 B2top1"/>
    </vehicle>
    <vehicle id="flow5.3" type="vtype1" depart="46.00" departLane="1" departSpeed="max">
        <route edges="left2A2 A2B2 B2top1"/>
    </vehicle>
    <vehicle id="flow6.3" type="vtype0" depart="46.00" departLane="0" departSpeed="max">
        <route edges="top0A2 A2A1 A1A0 A0bottom0"/>
    </vehicle>
    <vehicle id="flow7.3" type="vtype1" depart="46.00" departLane="1" departSpeed="max">
        <route edges="top0A2 A2B2 B2top1"/>
    </vehicle>
    <vehicle id="flow8.3" type="vtype0" depart="46.00" departLane="0" departSpeed="max">
        <route edges="top1B2 B2B1 B1A1 A1left1"/>
    </vehicle>
    <vehicle id="flow9.3" type="vtype1" depart="46.00" departLane="1" departSpeed="max">
        <route edges="top1B2 B2B1 B1A1 A1left1"/>
    </vehicle>
</routes>
